<?xml version="1.0" encoding="utf-8"?>
<!DOCTYPE population SYSTEM "http://www.matsim.org/files/dtd/population_v5.dtd">

<population>

	<!-- ====================================================================== -->

	<person id="passenger_0" employed="no">
		<plan selected="yes">
			<act type="dummy" link="134" end_time="01:00:00"/>
			<leg mode="drt"/>
			<act type="dummy" link="349"/>
		</plan>
	</person>

	<person id="passenger_1" employed="no">
		<plan selected="yes">
			<act type="dummy" link="134" end_time="01:01:00"/>
			<leg mode="drt"/>
			<act type="dummy" link="437"/>
		</plan>
	</person>

	<person id="passenger_2" employed="no">
		<plan selected="yes">
			<act type="dummy" link="134" end_time="01:02:00"/>
			<leg mode="drt"/>
			<act type="dummy" link="347"/>
		</plan>
	</person>

	<person id="passenger_3" employed="no">
		<plan selected="yes">
			<act type="dummy" link="134" end_time="01:15:00"/>
			<leg mode="drt"/>
			<act type="dummy" link="119"/>
		</plan>
	</person>

	<person id="passenger_4" employed="no">
		<plan selected="yes">
			<act type="dummy" link="134" end_time="01:00:00"/>
			<leg mode="drt"/>
			<act type="dummy" link="260"/>
		</plan>
	</person>

	<person id="passenger_5" employed="no">
		<plan selected="yes">
			<act type="dummy" link="134" end_time="01:00:00"/>
			<leg mode="drt"/>
			<act type="dummy" link="438"/>
		</plan>
	</person>

	<person id="passenger_6" employed="no">
		<plan selected="yes">
			<act type="dummy" link="134" end_time="01:02:00"/>
			<leg mode="drt"/>
			<act type="dummy" link="111"/>
		</plan>
	</person>

	<person id="passenger_7" employed="no">
		<plan selected="yes">
			<act type="dummy" link="134" end_time="01:05:00"/>
			<leg mode="drt"/>
			<act type="dummy" link="318"/>
		</plan>
	</person>

	<person id="passenger_8" employed="no">
		<plan selected="yes">
			<act type="dummy" link="134" end_time="01:03:00"/>
			<leg mode="drt"/>
			<act type="dummy" link="236"/>
		</plan>
	</person>

	<person id="passenger_9" employed="no">
		<plan selected="yes">
			<act type="dummy" link="134" end_time="01:00:00"/>
			<leg mode="drt"/>
			<act type="dummy" link="330"/>
		</plan>
	</person>

	<!-- ====================================================================== -->

</population>